data_image0
_chemical_formula_structural       S2O4N4C2H4C2H4C2H4C2H4C4S2O4N4C2H4C2H4C2H4C2H4C4
_chemical_formula_sum              "S4 O8 N8 C24 H32"
_cell_length_a       7.840000152587891
_cell_length_b       10.46399991897687
_cell_length_c       10.51399954857507
_cell_angle_alpha    63.839999748549445
_cell_angle_beta     79.61999945594766
_cell_angle_gamma    89.42000000567936

_space_group_name_H-M_alt    "P 1"
_space_group_IT_number       1


loop_
_atom_site_label
_atom_site_type_symbol
_atom_site_fract_x
_atom_site_fract_y
_atom_site_fract_z
_atom_site_U_iso_or_equiv
_atom_site_thermal_displace_type
S1 S 0.902689972113983 0.8257599841240209 0.0408600029266478 0.16347911953926086 Uani
S2 S 0.09730998439558688 0.17423997893489676 0.9591400808022725 0.16672860085964203 Uani
O1 O 0.6815000123428685 0.5943999920327193 0.17910001200543904 0.21640104055404663 Uani
O2 O 0.31849998458655826 0.4056000364891859 0.8209000266386781 0.22712011635303497 Uani
O3 O 0.24789998386472806 0.8734000432615789 0.9781000181884978 0.17539551854133606 Uani
O4 O 0.7520999870538244 0.12660000517810036 0.02190000113356077 0.18292054533958435 Uani
N1 N 0.9707999783064531 0.5625000115651451 0.15070001241764294 0.12995484471321106 Uani
N2 N 0.029199982756701798 0.4374999600186377 0.8493000519892189 0.12866541743278503 Uani
N3 N 0.13179999273573678 0.6431999801721261 0.10830000922306261 0.12297633290290833 Uani
N4 N 0.8682000230503867 0.356800008461387 0.8917000165396821 0.12399092316627502 Uani
C1 C 0.28369998818148084 0.5720999844462825 0.07680000432814112 0.14692965149879456 Uani
C2 C 0.7162999813731368 0.4279000497588661 0.9232000214346037 0.1416497528553009 Uani
H1 H 0.3891999836942038 0.6299999937571087 0.05910000041220392 0 Uiso
H2 H 0.6107999782711057 0.3700000262399314 0.9409000575539717 0 Uiso
H3 H 0.28029996363697884 0.5604000056904604 0.9908000208162978 0 Uiso
H4 H 0.7196999772612097 0.439599985074269 0.009200000115932352 0 Uiso
C3 C 0.2841999933992288 0.4277999927122122 0.20340001246916845 0.15879160165786743 Uani
C4 C 0.7157999700839421 0.5722000301264496 0.796600039056321 0.15930509567260742 Uani
H5 H 0.3027000006276228 0.44039999911630784 0.28600000927458813 0 Uiso
H6 H 0.6972999932660807 0.559600023722354 0.7140000422509013 0 Uiso
H7 H 0.37890000247727296 0.37709998748467005 0.17910001200543904 0 Uiso
H8 H 0.621099995067861 0.6228999954655996 0.8209000266386781 0 Uiso
C5 C 0.1133999963436546 0.34080001229702395 0.24180000175186664 0.16149568557739258 Uani
C6 C 0.8866000285762885 0.6591999649700022 0.7582000497736228 0.16348406672477722 Uani
H9 H 0.10019998756960696 0.3205000179885262 0.1623000102535724 0 Uiso
H10 H 0.8997999521901854 0.6794999706449868 0.8377000155091724 0 Uiso
H11 H 0.11369999296767412 0.2505000179373531 0.3261000047918705 0 Uiso
H12 H 0.8862999461764111 0.7495000162677956 0.6739000209708742 0 Uiso
C7 C 0.9630000050284145 0.4199000173427426 0.2726000071105176 0.12118880450725555 Uani
C8 C 0.03699999493673549 0.580100016862406 0.7274000186522273 0.12384272366762161 Uani
H13 H 0.8543999846442714 0.36689998081416025 0.2878000264841016 0 Uiso
H14 H 0.1455999733831601 0.633099985086379 0.7122000508041326 0 Uiso
H15 H 0.9673999823091435 0.4289999978855164 0.3599000044827176 0 Uiso
H16 H 0.032599987245474145 0.5710000363196323 0.6401000212800272 0 Uiso
C9 C 0.8308999542556995 0.6421000181234041 0.13560000401898817 0.17471037805080414 Uani
C10 C 0.1690999757812158 0.3578999990320142 0.8644000603878736 0.1722382754087448 Uani
C11 C 0.12429999396318694 0.7858999799355688 0.03650000296271564 0.1703399121761322 Uani
C12 C 0.8756999663410372 0.21409999022740311 0.9635000646644892 0.16535744071006775 Uani
S3 S 0.1604699919587049 0.007699987933060729 0.6268600315232944 0.1557837724685669 Uani
S4 S 0.8395299721401732 0.9922999893339656 0.373140020002195 0.15612739324569702 Uani
O5 O 0.39299999300493565 0.8143999666832541 0.6988000228773174 0.1296476274728775 Uani
O6 O 0.6070000078837751 0.18559999916444117 0.3012000028854274 0.12993669509887695 Uani
O7 O 0.1493999796506629 0.27959998015713855 0.5788000434875131 0.1292916238307953 Uani
O8 O 0.8505999534219757 0.7204000426815232 0.42120000803797636 0.13298159837722778 Uani

loop_
_atom_site_aniso_label
_atom_site_aniso_U_11
_atom_site_aniso_U_22
_atom_site_aniso_U_33
_atom_site_aniso_U_23
_atom_site_aniso_U_13
_atom_site_aniso_U_12
S1 0.03958486020565033 0.05368121340870857 0.03971552848815918 0.00032317155273631215 -0.000842568464577198 0.0023671630769968033
S2 0.03958486020565033 0.05368121340870857 0.03971552848815918 0.00032317155273631215 -0.000842568464577198 0.0023671630769968033
O1 0.03958486020565033 0.05368121340870857 0.03971552848815918 0.00032317155273631215 -0.000842568464577198 0.0023671630769968033
O2 0.03958486020565033 0.05368121340870857 0.03971552848815918 0.00032317155273631215 -0.000842568464577198 0.0023671630769968033
O3 0.03958486020565033 0.05368121340870857 0.03971552848815918 0.00032317155273631215 -0.000842568464577198 0.0023671630769968033
O4 0.03958486020565033 0.05368121340870857 0.03971552848815918 0.00032317155273631215 -0.000842568464577198 0.0023671630769968033
N1 0.03958486020565033 0.05368121340870857 0.03971552848815918 0.00032317155273631215 -0.000842568464577198 0.0023671630769968033
N2 0.03958486020565033 0.05368121340870857 0.03971552848815918 0.00032317155273631215 -0.000842568464577198 0.0023671630769968033
N3 0.03958486020565033 0.05368121340870857 0.03971552848815918 0.00032317155273631215 -0.000842568464577198 0.0023671630769968033
N4 0.03958486020565033 0.05368121340870857 0.03971552848815918 0.00032317155273631215 -0.000842568464577198 0.0023671630769968033
C1 0.03958486020565033 0.05368121340870857 0.03971552848815918 0.00032317155273631215 -0.000842568464577198 0.0023671630769968033
C2 0.03958486020565033 0.05368121340870857 0.03971552848815918 0.00032317155273631215 -0.000842568464577198 0.0023671630769968033
C3 0.03958486020565033 0.05368121340870857 0.03971552848815918 0.00032317155273631215 -0.000842568464577198 0.0023671630769968033
C4 0.03958486020565033 0.05368121340870857 0.03971552848815918 0.00032317155273631215 -0.000842568464577198 0.0023671630769968033
C5 0.03958486020565033 0.05368121340870857 0.03971552848815918 0.00032317155273631215 -0.000842568464577198 0.0023671630769968033
C6 0.03958486020565033 0.05368121340870857 0.03971552848815918 0.00032317155273631215 -0.000842568464577198 0.0023671630769968033
C7 0.03958486020565033 0.05368121340870857 0.03971552848815918 0.00032317155273631215 -0.000842568464577198 0.0023671630769968033
C8 0.03958486020565033 0.05368121340870857 0.03971552848815918 0.00032317155273631215 -0.000842568464577198 0.0023671630769968033
C9 0.03958486020565033 0.05368121340870857 0.03971552848815918 0.00032317155273631215 -0.000842568464577198 0.0023671630769968033
C10 0.03958486020565033 0.05368121340870857 0.03971552848815918 0.00032317155273631215 -0.000842568464577198 0.0023671630769968033
C11 0.03958486020565033 0.05368121340870857 0.03971552848815918 0.00032317155273631215 -0.000842568464577198 0.0023671630769968033
C12 0.03958486020565033 0.05368121340870857 0.03971552848815918 0.00032317155273631215 -0.000842568464577198 0.0023671630769968033
S3 0.03958486020565033 0.05368121340870857 0.03971552848815918 0.00032317155273631215 -0.000842568464577198 0.0023671630769968033
S4 0.03958486020565033 0.05368121340870857 0.03971552848815918 0.00032317155273631215 -0.000842568464577198 0.0023671630769968033
O5 0.03958486020565033 0.05368121340870857 0.03971552848815918 0.00032317155273631215 -0.000842568464577198 0.0023671630769968033
O6 0.03958486020565033 0.05368121340870857 0.03971552848815918 0.00032317155273631215 -0.000842568464577198 0.0023671630769968033
O7 0.03958486020565033 0.05368121340870857 0.03971552848815918 0.00032317155273631215 -0.000842568464577198 0.0023671630769968033
O8 0.03958486020565033 0.05368121340870857 0.03971552848815918 0.00032317155273631215 -0.000842568464577198 0.0023671630769968033
N5 0.03958486020565033 0.05368121340870857 0.03971552848815918 0.00032317155273631215 -0.000842568464577198 0.0023671630769968033
N6 0.03958486020565033 0.05368121340870857 0.03971552848815918 0.00032317155273631215 -0.000842568464577198 0.0023671630769968033
N7 0.03958486020565033 0.05368121340870857 0.03971552848815918 0.00032317155273631215 -0.000842568464577198 0.0023671630769968033
N8 0.03958486020565033 0.05368121340870857 0.03971552848815918 0.00032317155273631215 -0.000842568464577198 0.0023671630769968033
C13 0.03958486020565033 0.05368121340870857 0.03971552848815918 0.00032317155273631215 -0.000842568464577198 0.0023671630769968033
C14 0.03958486020565033 0.05368121340870857 0.03971552848815918 0.00032317155273631215 -0.000842568464577198 0.0023671630769968033
C15 0.03958486020565033 0.05368121340870857 0.03971552848815918 0.00032317155273631215 -0.000842568464577198 0.0023671630769968033
C16 0.03958486020565033 0.05368121340870857 0.03971552848815918 0.00032317155273631215 -0.000842568464577198 0.0023671630769968033
C17 0.03958486020565033 0.05368121340870857 0.03971552848815918 0.00032317155273631215 -0.000842568464577198 0.0023671630769968033
C18 0.03958486020565033 0.05368121340870857 0.03971552848815918 0.00032317155273631215 -0.000842568464577198 0.0023671630769968033
C19 0.03958486020565033 0.05368121340870857 0.03971552848815918 0.00032317155273631215 -0.000842568464577198 0.0023671630769968033
C20 0.03958486020565033 0.05368121340870857 0.03971552848815918 0.00032317155273631215 -0.000842568464577198 0.0023671630769968033
C21 0.03958486020565033 0.05368121340870857 0.03971552848815918 0.00032317155273631215 -0.000842568464577198 0.0023671630769968033
C22 0.03958486020565033 0.05368121340870857 0.03971552848815918 0.00032317155273631215 -0.000842568464577198 0.0023671630769968033
C23 0.03958486020565033 0.05368121340870857 0.03971552848815918 0.00032317155273631215 -0.000842568464577198 0.0023671630769968033
C24 0.03958486020565033 0.05368121340870857 0.03971552848815918 0.00032317155273631215 -0.000842568464577198 0.0023671630769968033
